<?xml version="1.0" encoding="UTF-8"?>
<configuration>
  <input>
    <net-file value="net.net.xml"/>
    <route-files value="platoon.rou.xml"/>
  </input>
  <time>
    <begin value="0"/>
    <end value="120"/>
    <step-length value="0.05"/>
  </time>
</configuration>
